72326
  Marvin  12310720203D          

 82 86  0  0  1  0            999 V2000
   -4.6867    3.7954    1.9639 O   0  0  0  0  0  0  0  0  0  0  0  0
    3.1792   -4.2854    1.8858 O   0  0  0  0  0  0  0  0  0  0  0  0
   -0.7494   -0.6466    0.1976 C   0  0  1  0  0  0  0  0  0  0  0  0
    0.4473   -1.3136   -0.6781 C   0  0  1  0  0  0  0  0  0  0  0  0
   -0.8642    0.9290   -0.0501 C   0  0  1  0  0  0  0  0  0  0  0  0
    1.8154   -0.5911   -0.2776 C   0  0  1  0  0  0  0  0  0  0  0  0
   -2.1272    1.7337    0.5393 C   0  0  2  0  0  0  0  0  0  0  0  0
    3.1276   -1.3393   -0.7229 C   0  0  2  0  0  0  0  0  0  0  0  0
    3.1418   -2.8028   -0.1505 C   0  0  1  0  0  0  0  0  0  0  0  0
   -3.4763    0.9915    0.1434 C   0  0  1  0  0  0  0  0  0  0  0  0
    0.5689   -2.8960   -0.5092 C   0  0  0  0  0  0  0  0  0  0  0  0
   -2.1534   -1.2494   -0.1887 C   0  0  0  0  0  0  0  0  0  0  0  0
    0.5316    1.6364    0.0980 C   0  0  0  0  0  0  0  0  0  0  0  0
    1.7545    0.9387   -0.5567 C   0  0  0  0  0  0  0  0  0  0  0  0
    1.9446   -3.5613   -0.8124 C   0  0  0  0  0  0  0  0  0  0  0  0
   -3.4116   -0.5518    0.3957 C   0  0  0  0  0  0  0  0  0  0  0  0
    4.5698   -0.7915   -0.4425 C   0  0  1  0  0  0  0  0  0  0  0  0
   -4.8658    1.6866    0.5301 C   0  0  1  0  0  0  0  0  0  0  0  0
   -2.2174    3.1792   -0.1082 C   0  0  0  0  0  0  0  0  0  0  0  0
    4.5453   -3.2755   -0.6235 C   0  0  0  0  0  0  0  0  0  0  0  0
   -0.5476   -0.9115    1.7483 C   0  0  0  0  0  0  0  0  0  0  0  0
    0.2513   -1.1652   -2.2469 C   0  0  0  0  0  0  0  0  0  0  0  0
    5.4722   -2.0662   -0.3692 C   0  0  0  0  0  0  0  0  0  0  0  0
   -2.0115    1.9477    2.0943 C   0  0  0  0  0  0  0  0  0  0  0  0
   -4.7512    3.2644    0.6371 C   0  0  2  0  0  0  0  0  0  0  0  0
   -3.6095    3.8746   -0.2166 C   0  0  0  0  0  0  0  0  0  0  0  0
    3.0749   -2.9434    1.4211 C   0  0  0  0  0  0  0  0  0  0  0  0
    5.0936    0.2611   -1.3419 C   0  0  0  0  0  0  0  0  0  0  0  0
   -5.9376    1.3763   -0.5817 C   0  0  0  0  0  0  0  0  0  0  0  0
   -5.4852    1.1273    1.8605 C   0  0  0  0  0  0  0  0  0  0  0  0
    5.2894    1.6354   -0.8794 C   0  0  0  0  0  0  0  0  0  0  0  0
    5.3855    0.0016   -2.6317 C   0  0  0  0  0  0  0  0  0  0  0  0
   -1.0339    1.0090   -1.1248 H   0  0  0  0  0  0  0  0  0  0  0  0
    1.9181   -0.5915    0.8046 H   0  0  0  0  0  0  0  0  0  0  0  0
    3.0781   -1.3835   -1.8152 H   0  0  0  0  0  0  0  0  0  0  0  0
   -3.4475    1.0295   -0.9531 H   0  0  0  0  0  0  0  0  0  0  0  0
    0.3225   -3.2430    0.4863 H   0  0  0  0  0  0  0  0  0  0  0  0
   -0.1850   -3.4260   -1.1001 H   0  0  0  0  0  0  0  0  0  0  0  0
   -2.3070   -1.2028   -1.2670 H   0  0  0  0  0  0  0  0  0  0  0  0
   -2.1992   -2.3104    0.0714 H   0  0  0  0  0  0  0  0  0  0  0  0
    0.4979    2.6496   -0.3086 H   0  0  0  0  0  0  0  0  0  0  0  0
    0.7791    1.7556    1.1523 H   0  0  0  0  0  0  0  0  0  0  0  0
    1.7885    1.1417   -1.6286 H   0  0  0  0  0  0  0  0  0  0  0  0
    2.6376    1.4192   -0.1357 H   0  0  0  0  0  0  0  0  0  0  0  0
    2.0739   -3.6089   -1.8972 H   0  0  0  0  0  0  0  0  0  0  0  0
    1.9338   -4.6059   -0.4867 H   0  0  0  0  0  0  0  0  0  0  0  0
   -4.2809   -1.0412   -0.0513 H   0  0  0  0  0  0  0  0  0  0  0  0
   -3.4897   -0.7669    1.4601 H   0  0  0  0  0  0  0  0  0  0  0  0
    4.5224   -0.3994    0.5782 H   0  0  0  0  0  0  0  0  0  0  0  0
   -1.8403    3.1526   -1.1351 H   0  0  0  0  0  0  0  0  0  0  0  0
   -1.5297    3.8638    0.3979 H   0  0  0  0  0  0  0  0  0  0  0  0
    4.5433   -3.5102   -1.6931 H   0  0  0  0  0  0  0  0  0  0  0  0
    4.9042   -4.1741   -0.1133 H   0  0  0  0  0  0  0  0  0  0  0  0
    0.1597   -0.2308    2.2178 H   0  0  0  0  0  0  0  0  0  0  0  0
   -1.4467   -0.8488    2.3464 H   0  0  0  0  0  0  0  0  0  0  0  0
   -0.2060   -1.9021    2.0158 H   0  0  0  0  0  0  0  0  0  0  0  0
    0.1388   -0.1441   -2.6006 H   0  0  0  0  0  0  0  0  0  0  0  0
    1.0789   -1.5686   -2.8285 H   0  0  0  0  0  0  0  0  0  0  0  0
   -0.6194   -1.6989   -2.6281 H   0  0  0  0  0  0  0  0  0  0  0  0
    5.9375   -2.1521    0.6178 H   0  0  0  0  0  0  0  0  0  0  0  0
    6.3012   -2.0890   -1.0819 H   0  0  0  0  0  0  0  0  0  0  0  0
   -1.0027    2.1882    2.4207 H   0  0  0  0  0  0  0  0  0  0  0  0
   -2.5919    2.7814    2.4706 H   0  0  0  0  0  0  0  0  0  0  0  0
   -2.3545    1.1022    2.6797 H   0  0  0  0  0  0  0  0  0  0  0  0
   -5.6777    3.7433    0.3020 H   0  0  0  0  0  0  0  0  0  0  0  0
   -3.5080    4.9407    0.0097 H   0  0  0  0  0  0  0  0  0  0  0  0
   -3.9457    3.8345   -1.2576 H   0  0  0  0  0  0  0  0  0  0  0  0
    2.1410   -2.5785    1.8406 H   0  0  0  0  0  0  0  0  0  0  0  0
    3.8579   -2.3732    1.9226 H   0  0  0  0  0  0  0  0  0  0  0  0
   -5.6491    1.8056   -1.5438 H   0  0  0  0  0  0  0  0  0  0  0  0
   -6.9208    1.7878   -0.3378 H   0  0  0  0  0  0  0  0  0  0  0  0
   -6.0833    0.3070   -0.7401 H   0  0  0  0  0  0  0  0  0  0  0  0
   -6.3898    1.6688    2.1483 H   0  0  0  0  0  0  0  0  0  0  0  0
   -4.7891    1.2065    2.6953 H   0  0  0  0  0  0  0  0  0  0  0  0
   -5.7731    0.0767    1.7837 H   0  0  0  0  0  0  0  0  0  0  0  0
   -4.7441    4.7702    1.8738 H   0  0  0  0  0  0  0  0  0  0  0  0
    3.0766   -4.2206    2.8596 H   0  0  0  0  0  0  0  0  0  0  0  0
    5.2177    1.7443    0.2039 H   0  0  0  0  0  0  0  0  0  0  0  0
    6.2693    2.0277   -1.1616 H   0  0  0  0  0  0  0  0  0  0  0  0
    4.5301    2.2817   -1.3253 H   0  0  0  0  0  0  0  0  0  0  0  0
    5.7357    0.6981   -3.2477 H   0  0  0  0  0  0  0  0  0  0  0  0
    5.2730   -0.9034   -3.0230 H   0  0  0  0  0  0  0  0  0  0  0  0
 25  1  1  0  0  0  0
  1 76  1  0  0  0  0
  2 27  1  0  0  0  0
  2 77  1  0  0  0  0
  3  4  1  0  0  0  0
  3  5  1  0  0  0  0
  3 12  1  0  0  0  0
  3 21  1  0  0  0  0
  4  6  1  0  0  0  0
  4 11  1  0  0  0  0
  4 22  1  0  0  0  0
  5  7  1  0  0  0  0
  5 13  1  0  0  0  0
  5 33  1  0  0  0  0
  6  8  1  0  0  0  0
  6 14  1  0  0  0  0
  6 34  1  0  0  0  0
  7 10  1  0  0  0  0
  7 19  1  0  0  0  0
  7 24  1  0  0  0  0
  8  9  1  0  0  0  0
  8 17  1  0  0  0  0
  8 35  1  0  0  0  0
  9 15  1  0  0  0  0
  9 20  1  0  0  0  0
  9 27  1  0  0  0  0
 10 16  1  0  0  0  0
 10 18  1  0  0  0  0
 10 36  1  0  0  0  0
 11 15  1  0  0  0  0
 11 37  1  0  0  0  0
 11 38  1  0  0  0  0
 12 16  1  0  0  0  0
 12 39  1  0  0  0  0
 12 40  1  0  0  0  0
 13 14  1  0  0  0  0
 13 41  1  0  0  0  0
 13 42  1  0  0  0  0
 14 43  1  0  0  0  0
 14 44  1  0  0  0  0
 15 45  1  0  0  0  0
 15 46  1  0  0  0  0
 16 47  1  0  0  0  0
 16 48  1  0  0  0  0
 17 23  1  0  0  0  0
 17 28  1  0  0  0  0
 17 49  1  0  0  0  0
 18 25  1  0  0  0  0
 18 29  1  0  0  0  0
 18 30  1  0  0  0  0
 19 26  1  0  0  0  0
 19 50  1  0  0  0  0
 19 51  1  0  0  0  0
 20 23  1  0  0  0  0
 20 52  1  0  0  0  0
 20 53  1  0  0  0  0
 21 54  1  0  0  0  0
 21 55  1  0  0  0  0
 21 56  1  0  0  0  0
 22 57  1  0  0  0  0
 22 58  1  0  0  0  0
 22 59  1  0  0  0  0
 23 60  1  0  0  0  0
 23 61  1  0  0  0  0
 24 62  1  0  0  0  0
 24 63  1  0  0  0  0
 24 64  1  0  0  0  0
 25 26  1  0  0  0  0
 25 65  1  0  0  0  0
 26 66  1  0  0  0  0
 26 67  1  0  0  0  0
 27 68  1  0  0  0  0
 27 69  1  0  0  0  0
 28 31  1  0  0  0  0
 28 32  2  0  0  0  0
 29 70  1  0  0  0  0
 29 71  1  0  0  0  0
 29 72  1  0  0  0  0
 30 73  1  0  0  0  0
 30 74  1  0  0  0  0
 30 75  1  0  0  0  0
 31 78  1  0  0  0  0
 31 79  1  0  0  0  0
 31 80  1  0  0  0  0
 32 81  1  0  0  0  0
 32 82  1  0  0  0  0
M  END

> <PUBCHEM_BONDANNOTATIONS>
25  1  5
10  36  6
17  28  6
3  21  5
4  22  6
5  33  6
6  34  5
7  24  5
8  35  6
9  27  5

> <StdInChI>
InChI=1S/C30H50O2/c1-19(2)20-10-15-30(18-31)17-16-28(6)21(25(20)30)8-9-23-27(5)13-12-24(32)26(3,4)22(27)11-14-29(23,28)7/h20-25,31-32H,1,8-18H2,2-7H3/t20-,21+,22-,23+,24-,25+,27-,28+,29+,30+/m0/s1

> <StdInChIKey>
FVWJYYTZTCVBKE-ROUWMTJPSA-N

> <AuxInfo>
1/0/N:32,31,29,30,24,22,21,14,13,23,16,26,19,12,20,11,15,27,28,17,6,10,5,25,8,18,7,4,3,9,2,1/E:(3,4)/it:im/rA:82cOOCCCCCCCCCCCCCCCCCCCCCCCCCCCCCCHHHHHHHHHHHHHHHHHHHHHHHHHHHHHHHHHHHHHHHHHHHHHHHHHH/rB:;;s3;s3;s4;s5;s6;s8;s7;s4;s3;s5;s6s13;s9s11;s10s12;s8;s10;s7;s9;s3;s4;s17s20;s7;s1s18;s19s25;s2s9;s17;s18;s18;s28;d28;s5;s6;s8;s10;s11;s11;s12;s12;s13;s13;s14;s14;s15;s15;s16;s16;s17;s19;s19;s20;s20;s21;s21;s21;s22;s22;s22;s23;s23;s24;s24;s24;s25;s26;s26;s27;s27;s29;s29;s29;s30;s30;s30;s1;s2;s31;s31;s31;s32;s32;/rC:-4.6867,3.7954,1.9639;3.1792,-4.2854,1.8858;-.7494,-.6466,.1976;.4473,-1.3136,-.6781;-.8642,.929,-.0501;1.8154,-.5911,-.2776;-2.1272,1.7337,.5393;3.1276,-1.3393,-.7229;3.1418,-2.8028,-.1505;-3.4763,.9915,.1434;.5689,-2.896,-.5092;-2.1534,-1.2494,-.1887;.5316,1.6364,.098;1.7545,.9387,-.5567;1.9446,-3.5613,-.8124;-3.4116,-.5518,.3957;4.5698,-.7915,-.4425;-4.8658,1.6866,.5301;-2.2174,3.1792,-.1082;4.5453,-3.2755,-.6235;-.5476,-.9115,1.7483;.2513,-1.1652,-2.2469;5.4722,-2.0662,-.3692;-2.0115,1.9477,2.0943;-4.7512,3.2644,.6371;-3.6095,3.8746,-.2166;3.0749,-2.9434,1.4211;5.0936,.2611,-1.3419;-5.9376,1.3763,-.5817;-5.4852,1.1273,1.8605;5.2894,1.6354,-.8794;5.3855,.0016,-2.6317;-1.0339,1.009,-1.1248;1.9181,-.5915,.8046;3.0781,-1.3835,-1.8152;-3.4475,1.0295,-.9531;.3225,-3.243,.4863;-.185,-3.426,-1.1001;-2.307,-1.2028,-1.267;-2.1992,-2.3104,.0714;.4979,2.6496,-.3086;.7791,1.7556,1.1523;1.7885,1.1417,-1.6286;2.6376,1.4192,-.1357;2.0739,-3.6089,-1.8972;1.9338,-4.6059,-.4867;-4.2809,-1.0412,-.0513;-3.4897,-.7669,1.4601;4.5224,-.3994,.5782;-1.8403,3.1526,-1.1351;-1.5297,3.8638,.3979;4.5433,-3.5102,-1.6931;4.9042,-4.1741,-.1133;.1597,-.2308,2.2178;-1.4467,-.8488,2.3464;-.206,-1.9021,2.0158;.1388,-.1441,-2.6006;1.0789,-1.5686,-2.8285;-.6194,-1.6989,-2.6281;5.9375,-2.1521,.6178;6.3012,-2.089,-1.0819;-1.0027,2.1882,2.4207;-2.5919,2.7814,2.4706;-2.3545,1.1022,2.6797;-5.6777,3.7433,.302;-3.508,4.9407,.0097;-3.9457,3.8345,-1.2576;2.141,-2.5785,1.8406;3.8579,-2.3732,1.9226;-5.6491,1.8056,-1.5438;-6.9208,1.7878,-.3378;-6.0833,.307,-.7401;-6.3898,1.6688,2.1483;-4.7891,1.2065,2.6953;-5.7731,.0767,1.7837;-4.7441,4.7702,1.8738;3.0766,-4.2206,2.8596;5.2177,1.7443,.2039;6.2693,2.0277,-1.1616;4.5301,2.2817,-1.3253;5.7357,.6981,-3.2477;5.273,-.9034,-3.023;

> <Formula>
C30 H50 O2

> <Mw>
442.7168

> <SMILES>
O([H])[C@@]1([H])C([H])([H])C([H])([H])[C@@]2(C([H])([H])[H])[C@]([H])(C1(C([H])([H])[H])C([H])([H])[H])C([H])([H])C([H])([H])[C@]1(C([H])([H])[H])[C@]2([H])C([H])([H])C([H])([H])[C@]2([H])[C@@]3([H])[C@]([H])(C(=C([H])[H])C([H])([H])[H])C([H])([H])C([H])([H])[C@]3(C([H])([H])O[H])C([H])([H])C([H])([H])[C@@]12C([H])([H])[H]

> <CSID>
65272

$$$$
