
  1019              3D

 41 43  0  0  0  0  0  0  0  0999 V2000
    2.2795   -9.9711    1.2260 O   0  0  0  0  0  0  0  0  0  0  0  0
    2.1492   -9.2205   -0.0195 S   0  0  0  0  0  0  0  0  0  0  0  0
    3.6386   -8.2193   -0.0069 C   0  0  0  0  0  0  0  0  0  0  0  0
    4.8656   -8.8824   -0.0242 C   0  0  0  0  0  0  0  0  0  0  0  0
    6.0571   -8.1465   -0.0009 C   0  0  0  0  0  0  0  0  0  0  0  0
    7.2982   -8.8000   -0.0213 C   0  0  0  0  0  0  0  0  0  0  0  0
    8.4841   -8.0710    0.0081 C   0  0  0  0  0  0  0  0  0  0  0  0
    8.4438   -6.6817    0.0686 C   0  0  0  0  0  0  0  0  0  0  0  0
    7.2114   -6.0141    0.0918 C   0  0  0  0  0  0  0  0  0  0  0  0
    7.1920   -4.5395    0.1839 C   0  0  0  0  0  0  0  0  0  0  0  0
    5.9262   -3.9223    0.1409 N   0  0  0  0  0  0  0  0  0  0  0  0
    5.8937   -2.4505    0.2176 C   0  0  0  0  0  0  0  0  0  0  0  0
    6.2194   -1.7879   -1.0979 C   0  0  0  0  0  0  0  0  0  0  0  0
    7.4951   -1.2581   -1.3323 C   0  0  0  0  0  0  0  0  0  0  0  0
    7.8075   -0.6664   -2.5587 C   0  0  0  0  0  0  0  0  0  0  0  0
    6.8457   -0.5802   -3.5707 C   0  0  0  0  0  0  0  0  0  0  0  0
    7.1792   -0.0048   -4.8131 N   0  0  0  0  0  0  0  0  0  0  0  0
    5.5629   -1.0857   -3.3303 C   0  0  0  0  0  0  0  0  0  0  0  0
    5.2523   -1.6831   -2.1048 C   0  0  0  0  0  0  0  0  0  0  0  0
    4.6948   -4.6059    0.0802 C   0  0  0  0  0  0  0  0  0  0  0  0
    3.5932   -4.0610    0.0551 O   0  0  0  0  0  0  0  0  0  0  0  0
    8.2587   -3.9412    0.3066 O   0  0  0  0  0  0  0  0  0  0  0  0
    6.0084   -6.7295    0.0469 C   0  0  0  0  0  0  0  0  0  0  0  0
    4.7611   -6.0865    0.0529 C   0  0  0  0  0  0  0  0  0  0  0  0
    3.5709   -6.8288    0.0289 C   0  0  0  0  0  0  0  0  0  0  0  0
    2.3129   -9.9965   -1.2456 O   0  5  0  0  0  0  0  0  0  0  0  0
    1.0650   -8.2449   -0.0461 O   0  0  0  0  0  0  0  0  0  0  0  0
   -0.8290   -5.9786   -0.0005 Na  0  3  0  0  0  0  0  0  0  0  0  0
    4.8950   -9.9692   -0.0515 H   0  0  0  0  0  0  0  0  0  0  0  0
    2.6109   -6.3234    0.0412 H   0  0  0  0  0  0  0  0  0  0  0  0
    7.3531   -9.8863   -0.0610 H   0  0  0  0  0  0  0  0  0  0  0  0
    9.4393   -8.5874   -0.0111 H   0  0  0  0  0  0  0  0  0  0  0  0
    9.3832   -6.1362    0.0961 H   0  0  0  0  0  0  0  0  0  0  0  0
    4.9094   -2.1147    0.5648 H   0  0  0  0  0  0  0  0  0  0  0  0
    6.5974   -2.1331    0.9980 H   0  0  0  0  0  0  0  0  0  0  0  0
    8.2619   -1.3087   -0.5634 H   0  0  0  0  0  0  0  0  0  0  0  0
    4.2490   -2.0696   -1.9454 H   0  0  0  0  0  0  0  0  0  0  0  0
    8.8099   -0.2754   -2.7184 H   0  0  0  0  0  0  0  0  0  0  0  0
    7.5521    0.9349   -4.6957 H   0  0  0  0  0  0  0  0  0  0  0  0
    6.3878    0.0209   -5.4520 H   0  0  0  0  0  0  0  0  0  0  0  0
    4.7948   -1.0242   -4.0979 H   0  0  0  0  0  0  0  0  0  0  0  0
  1  2  2  0  0  0  0
  2  3  1  0  0  0  0
  2 26  1  0  0  0  0
  2 27  2  0  0  0  0
  3  4  2  0  0  0  0
  3 25  1  0  0  0  0
  4  5  1  0  0  0  0
  5  6  2  0  0  0  0
  5 23  1  0  0  0  0
  6  7  1  0  0  0  0
  7  8  2  0  0  0  0
  8  9  1  0  0  0  0
  9 10  1  0  0  0  0
  9 23  2  0  0  0  0
 10 11  1  0  0  0  0
 10 22  2  0  0  0  0
 11 12  1  0  0  0  0
 11 20  1  0  0  0  0
 12 13  1  0  0  0  0
 13 14  2  0  0  0  0
 13 19  1  0  0  0  0
 14 15  1  0  0  0  0
 15 16  2  0  0  0  0
 16 17  1  0  0  0  0
 16 18  1  0  0  0  0
 18 19  2  0  0  0  0
 20 21  2  0  0  0  0
 20 24  1  0  0  0  0
 23 24  1  0  0  0  0
 24 25  2  0  0  0  0
  4 29  1  0  0  0  0
 25 30  1  0  0  0  0
  6 31  1  0  0  0  0
  7 32  1  0  0  0  0
  8 33  1  0  0  0  0
 12 34  1  0  0  0  0
 12 35  1  0  0  0  0
 14 36  1  0  0  0  0
 19 37  1  0  0  0  0
 15 38  1  0  0  0  0
 17 39  1  0  0  0  0
 17 40  1  0  0  0  0
 18 41  1  0  0  0  0
M  CHG  2  26  -1  28   1
M  END

> <energy>
81.486507129858808

> <StdInChI>
InChI=1S/C19H14N2O5S.Na/c20-13-6-4-11(5-7-13)10-21-18(22)15-3-1-2-12-8-14(27(24,25)26)9-16(17(12)15)19(21)23;/h1-9H,10,20H2,(H,24,25,26);/q;+1/p-1

> <StdInChIKey>
MKPPGLKJTZAXNE-UHFFFAOYSA-M

> <AuxInfo>
1/1/N:7,6,8,14,19,15,18,4,25,12,13,5,16,3,9,24,23,10,20,17,11,22,21,1,26,27,2;28/E:(4,5)(6,7)(24,25,26);/CRV:27.6;/rA:41nOSCCCCCCCCNCCCCCNCCCOOCCCO-ONa+HHHHHHHHHHHHH/rB:d1;s2;d3;s4;d5;s6;d7;s8;s9;s10;s11;s12;d13;s14;d15;s16;s16;s13d18;s11;d20;d10;s5d9;s20s23;s3d24;s2;d2;;s4;s25;s6;s7;s8;s12;s12;s14;s19;s15;s17;s17;s18;/rC:2.2795,-9.9711,1.226;2.1492,-9.2205,-.0195;3.6386,-8.2193,-.0069;4.8656,-8.8824,-.0242;6.0571,-8.1465,-.0009;7.2982,-8.8,-.0213;8.4841,-8.071,.0081;8.4438,-6.6817,.0686;7.2114,-6.0141,.0918;7.192,-4.5395,.1839;5.9262,-3.9223,.1409;5.8937,-2.4505,.2176;6.2194,-1.7879,-1.0979;7.4951,-1.2581,-1.3323;7.8075,-.6664,-2.5587;6.8457,-.5802,-3.5707;7.1792,-.0048,-4.8131;5.5629,-1.0857,-3.3303;5.2523,-1.6831,-2.1048;4.6948,-4.6059,.0802;3.5932,-4.061,.0551;8.2587,-3.9412,.3066;6.0084,-6.7295,.0469;4.7611,-6.0865,.0529;3.5709,-6.8288,.0289;2.3129,-9.9965,-1.2456;1.065,-8.2449,-.0461;-.829,-5.9786,-.0005;4.895,-9.9692,-.0515;2.6109,-6.3234,.0412;7.3531,-9.8863,-.061;9.4393,-8.5874,-.0111;9.3832,-6.1362,.0961;4.9094,-2.1147,.5648;6.5974,-2.1331,.998;8.2619,-1.3087,-.5634;4.249,-2.0696,-1.9454;8.8099,-.2754,-2.7184;7.5521,.9349,-4.6957;6.3878,.0209,-5.452;4.7948,-1.0242,-4.0979;

> <Formula>
C19 H13 N2 Na O5 S

> <Mw>
404.3717

> <SMILES>
O=S(=O)([O-])C1C([H])=C2C3=C(C(=O)N(C2=O)C([H])([H])C2C([H])=C([H])C(N([H])[H])=C([H])C=2[H])C([H])=C([H])C([H])=C3C=1[H].[Na+]

> <CSID>
32739500

$$$$
