6176
  Marvin  12300703363D          

 45 46  0  0  1  0            999 V2000
   -1.3938   -2.5573   -2.0798 P   0  0  1  0  0  0  0  0  0  0  0  0
   -0.1160   -0.8225   -3.6005 P   0  0  1  0  0  0  0  0  0  0  0  0
    2.0877   -1.7260   -4.7032 P   0  0  2  0  0  0  0  0  0  0  0  0
   -0.0983   -0.0246    1.1123 O   0  0  0  0  0  0  0  0  0  0  0  0
   -1.0253   -2.4789    3.5406 O   0  0  0  0  0  0  0  0  0  0  0  0
    0.4193   -0.4237    4.5721 O   0  0  0  0  0  0  0  0  0  0  0  0
   -0.7960   -2.0928   -0.8324 O   0  0  0  0  0  0  0  0  0  0  0  0
   -1.9039    2.1544    1.8302 O   0  0  0  0  0  0  0  0  0  0  0  0
   -0.5825   -2.1486   -3.2102 O   0  0  0  0  0  0  0  0  0  0  0  0
   -1.4577   -3.9977   -2.0549 O   0  0  0  0  0  0  0  0  0  0  0  0
   -2.7430   -2.0753   -2.2488 O   0  0  0  0  0  0  0  0  0  0  0  0
    0.8483   -0.9585   -4.6830 O   0  0  0  0  0  0  0  0  0  0  0  0
   -1.2297   -0.0371   -4.0752 O   0  0  0  0  0  0  0  0  0  0  0  0
    0.4798   -0.0860   -2.5115 O   0  0  0  0  0  0  0  0  0  0  0  0
    2.6754   -1.6169   -6.0132 O   0  0  0  0  0  0  0  0  0  0  0  0
    1.8637   -3.1285   -4.4399 O   0  0  0  0  0  0  0  0  0  0  0  0
    3.0506   -1.2199   -3.7575 O   0  0  0  0  0  0  0  0  0  0  0  0
    0.3459    2.0199    2.1820 N   0  0  0  0  0  0  0  0  0  0  0  0
   -0.7970    3.9733    1.7307 N   0  0  0  0  0  0  0  0  0  0  0  0
    0.1964    5.9437    1.5570 N   0  0  0  0  0  0  0  0  0  0  0  0
   -1.1020   -1.2546    2.8135 C   0  0  1  0  0  0  0  0  0  0  0  0
   -0.4076   -0.0443    3.4729 C   0  0  2  0  0  0  0  0  0  0  0  0
   -0.4290   -1.3813    1.4301 C   0  0  1  0  0  0  0  0  0  0  0  0
    0.3951    0.6013    2.3096 C   0  0  1  0  0  0  0  0  0  0  0  0
   -1.3531   -2.0388    0.3790 C   0  0  0  0  0  0  0  0  0  0  0  0
    1.4689    2.7512    2.2675 C   0  0  0  0  0  0  0  0  0  0  0  0
   -0.8009    2.6742    1.9264 C   0  0  0  0  0  0  0  0  0  0  0  0
    1.4789    4.0848    2.0617 C   0  0  0  0  0  0  0  0  0  0  0  0
    0.2809    4.6837    1.7799 C   0  0  0  0  0  0  0  0  0  0  0  0
   -2.1649   -1.0179    2.6978 H   0  0  0  0  0  0  0  0  0  0  0  0
   -1.1623    0.6323    3.8828 H   0  0  0  0  0  0  0  0  0  0  0  0
    0.4965   -1.9670    1.5006 H   0  0  0  0  0  0  0  0  0  0  0  0
    1.4277    0.2362    2.4078 H   0  0  0  0  0  0  0  0  0  0  0  0
   -1.5943   -3.0513    0.7177 H   0  0  0  0  0  0  0  0  0  0  0  0
   -2.2789   -1.4563    0.3338 H   0  0  0  0  0  0  0  0  0  0  0  0
   -1.4673   -3.1410    2.9667 H   0  0  0  0  0  0  0  0  0  0  0  0
    0.7654    0.4174    4.9363 H   0  0  0  0  0  0  0  0  0  0  0  0
    2.3470    2.3325    2.4813 H   0  0  0  0  0  0  0  0  0  0  0  0
    2.3241    4.6068    2.1173 H   0  0  0  0  0  0  0  0  0  0  0  0
   -1.9884   -4.4297   -2.6088 H   0  0  0  0  0  0  0  0  0  0  0  0
   -0.6393    6.3478    1.4379 H   0  0  0  0  0  0  0  0  0  0  0  0
    0.9707    6.4668    1.5076 H   0  0  0  0  0  0  0  0  0  0  0  0
   -1.1747    0.8410   -4.1052 H   0  0  0  0  0  0  0  0  0  0  0  0
    2.2424   -1.9167   -6.7183 H   0  0  0  0  0  0  0  0  0  0  0  0
    2.5412   -3.6745   -4.3109 H   0  0  0  0  0  0  0  0  0  0  0  0
  1  7  1  0  0  0  0
  1  9  1  0  0  0  0
  1 10  1  0  0  0  0
  1 11  2  0  0  0  0
  2  9  1  0  0  0  0
  2 12  1  0  0  0  0
  2 13  1  0  0  0  0
  2 14  2  0  0  0  0
  3 12  1  0  0  0  0
  3 15  1  0  0  0  0
  3 16  1  0  0  0  0
  3 17  2  0  0  0  0
  4 23  1  0  0  0  0
  4 24  1  0  0  0  0
 21  5  1  0  0  0  0
  5 36  1  0  0  0  0
 22  6  1  0  0  0  0
  6 37  1  0  0  0  0
  7 25  1  0  0  0  0
  8 27  2  0  0  0  0
 10 40  1  0  0  0  0
 13 43  1  0  0  0  0
 15 44  1  0  0  0  0
 16 45  1  0  0  0  0
 24 18  1  0  0  0  0
 18 26  1  0  0  0  0
 18 27  1  0  0  0  0
 19 27  1  0  0  0  0
 19 29  2  0  0  0  0
 20 29  1  0  0  0  0
 20 41  1  0  0  0  0
 20 42  1  0  0  0  0
 21 22  1  0  0  0  0
 21 23  1  0  0  0  0
 21 30  1  0  0  0  0
 22 24  1  0  0  0  0
 22 31  1  0  0  0  0
 23 25  1  0  0  0  0
 23 32  1  0  0  0  0
 24 33  1  0  0  0  0
 25 34  1  0  0  0  0
 25 35  1  0  0  0  0
 26 28  2  0  0  0  0
 26 38  1  0  0  0  0
 28 29  1  0  0  0  0
 28 39  1  0  0  0  0
M  END

> <PUBCHEM_BONDANNOTATIONS>
1  10  5
24  18  6
18  26  8
18  27  8
19  27  8
19  29  8
2  13  6
23  25  6
26  28  8
28  29  8
21  5  5
22  6  5

> <StdInChI>
InChI=1S/C9H16N3O14P3/c10-5-1-2-12(9(15)11-5)8-7(14)6(13)4(24-8)3-23-28(19,20)26-29(21,22)25-27(16,17)18/h1-2,4,6-8,13-14H,3H2,(H,19,20)(H,21,22)(H2,10,11,15)(H2,16,17,18)/t4-,6-,7-,8-/m1/s1

> <StdInChIKey>
PCDQPRRSZKQHHS-XVFCMESISA-N

> <AuxInfo>
1/1/N:28,26,25,23,29,21,22,24,27,20,19,18,5,6,8,15,16,17,10,11,13,14,7,4,12,9,3,1,2/E:(16,17,18)(19,20)(21,22)/it:im/rA:45cPPPOOOOOOOOOOOOOONNNCCCCCCCCCHHHHHHHHHHHHHHHH/rB:;;;;;s1;;s1s2;s1;d1;s2s3;s2;d2;s3;s3;d3;;;;s5;s6s21;s4s21;s4s18s22;s7s23;s18;d8s18s19;d26;d19s20s28;s21;s22;s23;s24;s25;s25;s5;s6;s26;s28;s10;s20;s20;s13;s15;s16;/rC:-1.3938,-2.5573,-2.0798;-.116,-.8225,-3.6005;2.0877,-1.726,-4.7032;-.0983,-.0246,1.1123;-1.0253,-2.4789,3.5406;.4193,-.4237,4.5721;-.796,-2.0928,-.8324;-1.9039,2.1544,1.8302;-.5825,-2.1486,-3.2102;-1.4577,-3.9977,-2.0549;-2.743,-2.0753,-2.2488;.8483,-.9585,-4.683;-1.2297,-.0371,-4.0752;.4798,-.086,-2.5115;2.6754,-1.6169,-6.0132;1.8637,-3.1285,-4.4399;3.0506,-1.2199,-3.7575;.3459,2.0199,2.182;-.797,3.9733,1.7307;.1964,5.9437,1.557;-1.102,-1.2546,2.8135;-.4076,-.0443,3.4729;-.429,-1.3813,1.4301;.3951,.6013,2.3096;-1.3531,-2.0388,.379;1.4689,2.7512,2.2675;-.8009,2.6742,1.9264;1.4789,4.0848,2.0617;.2809,4.6837,1.7799;-2.1649,-1.0179,2.6978;-1.1623,.6323,3.8828;.4965,-1.967,1.5006;1.4277,.2362,2.4078;-1.5943,-3.0513,.7177;-2.2789,-1.4563,.3338;-1.4673,-3.141,2.9667;.7654,.4174,4.9363;2.347,2.3325,2.4813;2.3241,4.6068,2.1173;-1.9884,-4.4297,-2.6088;-.6393,6.3478,1.4379;.9707,6.4668,1.5076;-1.1747,.841,-4.1052;2.2424,-1.9167,-6.7183;2.5412,-3.6745,-4.3109;

> <Formula>
C9 H16 N3 O14 P3

> <Mw>
483.1563

> <SMILES>
[P@@](=O)(O[H])(O[P@](=O)(O[H])OP(=O)(O[H])O[H])OC([H])([H])[C@]1([H])[C@]([H])([C@]([H])([C@]([H])(N2C(N=C(C([H])=C2[H])N([H])[H])=O)O1)O[H])O[H]

> <CSID>
5941

$$$$
