
  1019              3D

 76 78  0  0  1  0  0  0  0  0999 V2000
    4.4973  -10.8252    2.0015 O   0  0  0  0  0  0  0  0  0  0  0  0
    6.0032  -10.8008    1.7608 P   0  0  0  0  0  0  0  0  0  0  0  0
    6.4146  -11.3166    0.3850 O   0  5  0  0  0  0  0  0  0  0  0  0
    6.8172  -11.3756    2.9165 O   0  5  0  0  0  0  0  0  0  0  0  0
    6.3572   -9.1862    1.7036 O   0  0  0  0  0  0  0  0  0  0  0  0
    7.5636   -8.6827    2.2772 C   0  0  0  0  0  0  0  0  0  0  0  0
    8.7294   -8.9355    1.3127 C   0  0  0  0  0  0  0  0  0  0  0  0
    9.8271   -9.6958    1.8750 N   0  0  0  0  0  0  0  0  0  0  0  0
    9.9733  -11.0509    1.7123 C   0  0  0  0  0  0  0  0  0  0  0  0
   11.0841  -11.4995    2.2522 N   0  0  0  0  0  0  0  0  0  0  0  0
   11.6712  -10.3959    2.8186 C   0  0  0  0  0  0  0  0  0  0  0  0
   12.8797  -10.2510    3.5172 C   0  0  0  0  0  0  0  0  0  0  0  0
   13.7474  -11.3347    3.7316 N   0  0  0  0  0  0  0  0  0  0  0  0
   13.1855   -9.0067    3.9802 N   0  0  0  0  0  0  0  0  0  0  0  0
   12.3195   -7.9963    3.7291 C   0  0  0  0  0  0  0  0  0  0  0  0
   11.1509   -8.0231    3.0559 N   0  0  0  0  0  0  0  0  0  0  0  0
   10.8880   -9.2642    2.6213 C   0  0  0  0  0  0  0  0  0  0  0  0
    9.1886   -7.6493    0.8355 O   0  0  0  0  0  0  0  0  0  0  0  0
    8.0657   -6.7684    0.9825 C   0  0  0  0  0  0  0  0  0  0  0  0
    8.4575   -5.3052    0.9064 C   0  0  0  0  0  0  0  0  0  0  0  0
    8.9300   -4.9751   -0.3931 O   0  0  0  0  0  0  0  0  0  0  0  0
    8.2427   -3.7743   -1.2420 P   0  0  0  0  0  0  0  0  0  0  0  0
    6.8457   -4.4232   -1.7370 O   0  0  0  0  0  0  0  0  0  0  0  0
    7.8021   -2.6779   -0.1390 O   0  0  0  0  0  0  0  0  0  0  0  0
    6.3695   -1.9939    0.2418 P   0  0  0  0  0  0  0  0  0  0  0  0
    6.1202   -0.8469   -0.7139 O   0  5  0  0  0  0  0  0  0  0  0  0
    6.7747   -1.3665    1.6997 O   0  0  0  0  0  0  0  0  0  0  0  0
    6.9359   -2.2304    2.8202 C   0  0  0  0  0  0  0  0  0  0  0  0
    8.1459   -1.8243    3.6514 C   0  0  0  0  0  0  0  0  0  0  0  0
    8.6171   -2.9483    4.4192 O   0  0  0  0  0  0  0  0  0  0  0  0
    9.9087   -2.5523    4.9157 C   0  0  0  0  0  0  0  0  0  0  0  0
   10.7125   -3.7030    5.4261 N   0  3  0  0  0  0  0  0  0  0  0  0
   10.0920   -4.6770    6.1387 C   0  0  0  0  0  0  0  0  0  0  0  0
   10.8144   -5.6956    6.7577 C   0  0  0  0  0  0  0  0  0  0  0  0
   12.1985   -5.7143    6.6548 C   0  0  0  0  0  0  0  0  0  0  0  0
   12.8193   -4.7064    5.9342 C   0  0  0  0  0  0  0  0  0  0  0  0
   14.2817   -4.6483    5.8408 C   0  0  0  0  0  0  0  0  0  0  0  0
   14.7978   -5.0819    4.6405 N   0  0  0  0  0  0  0  0  0  0  0  0
   14.9339   -4.2222    6.7860 O   0  0  0  0  0  0  0  0  0  0  0  0
   12.0648   -3.7007    5.3436 C   0  0  0  0  0  0  0  0  0  0  0  0
   10.5460   -1.7934    3.7499 C   0  0  0  0  0  0  0  0  0  0  0  0
   11.2889   -0.6814    4.2238 O   0  0  0  0  0  0  0  0  0  0  0  0
    9.3721   -1.3838    2.8628 C   0  0  0  0  0  0  0  0  0  0  0  0
    9.3282    0.0068    2.6037 O   0  0  0  0  0  0  0  0  0  0  0  0
    5.3309   -3.0796    0.4350 O   0  0  0  0  0  0  0  0  0  0  0  0
    9.0976   -3.2273   -2.3473 O   0  0  0  0  0  0  0  0  0  0  0  0
    7.5136   -7.1632    2.3427 C   0  0  0  0  0  0  0  0  0  0  0  0
    6.2294   -6.6450    2.6122 O   0  0  0  0  0  0  0  0  0  0  0  0
   14.7184   -4.6856    0.0751 Na  0  3  0  0  0  0  0  0  0  0  0  0
    8.7979   -7.9323   -2.1712 Na  0  3  0  0  0  0  0  0  0  0  0  0
    7.6862   -9.1055    3.2787 H   0  0  0  0  0  0  0  0  0  0  0  0
    8.3993   -9.4798    0.4210 H   0  0  0  0  0  0  0  0  0  0  0  0
    8.1996   -6.8212    3.1289 H   0  0  0  0  0  0  0  0  0  0  0  0
    9.2466  -11.6507    1.1830 H   0  0  0  0  0  0  0  0  0  0  0  0
   14.6648  -11.0030    4.0224 H   0  0  0  0  0  0  0  0  0  0  0  0
   13.8461  -11.9015    2.8919 H   0  0  0  0  0  0  0  0  0  0  0  0
   12.6088   -7.0305    4.1192 H   0  0  0  0  0  0  0  0  0  0  0  0
    7.3468   -6.9855    0.1826 H   0  0  0  0  0  0  0  0  0  0  0  0
    7.5688   -4.7164    1.1263 H   0  0  0  0  0  0  0  0  0  0  0  0
    9.2322   -5.0475    1.6349 H   0  0  0  0  0  0  0  0  0  0  0  0
    6.6127   -5.3273   -1.4384 H   0  0  0  0  0  0  0  0  0  0  0  0
    6.0277   -2.1527    3.4254 H   0  0  0  0  0  0  0  0  0  0  0  0
    7.0167   -3.2698    2.4989 H   0  0  0  0  0  0  0  0  0  0  0  0
    7.8341   -1.0406    4.3549 H   0  0  0  0  0  0  0  0  0  0  0  0
    9.4333   -1.9210    1.9089 H   0  0  0  0  0  0  0  0  0  0  0  0
    9.7591   -1.9117    5.7954 H   0  0  0  0  0  0  0  0  0  0  0  0
   11.2144   -2.4289    3.1582 H   0  0  0  0  0  0  0  0  0  0  0  0
    9.0149   -4.6074    6.2410 H   0  0  0  0  0  0  0  0  0  0  0  0
   12.5384   -2.8779    4.8260 H   0  0  0  0  0  0  0  0  0  0  0  0
   10.2993   -6.4553    7.3387 H   0  0  0  0  0  0  0  0  0  0  0  0
   12.7730   -6.4954    7.1426 H   0  0  0  0  0  0  0  0  0  0  0  0
   14.2076   -5.4338    3.8925 H   0  0  0  0  0  0  0  0  0  0  0  0
   15.7404   -4.8208    4.3674 H   0  0  0  0  0  0  0  0  0  0  0  0
   10.7251   -0.1816    4.8385 H   0  0  0  0  0  0  0  0  0  0  0  0
   10.1273    0.2313    2.0973 H   0  0  0  0  0  0  0  0  0  0  0  0
    5.6536   -6.8517    1.8570 H   0  0  0  0  0  0  0  0  0  0  0  0
  1  2  2  0  0  0  0
  2  3  1  0  0  0  0
  2  4  1  0  0  0  0
  2  5  1  0  0  0  0
  6  5  1  0  0  0  0
  6  7  1  0  0  0  0
  6 47  1  0  0  0  0
  7  8  1  0  0  0  0
  7 18  1  0  0  0  0
  8  9  1  0  0  0  0
  8 17  1  0  0  0  0
  9 10  2  0  0  0  0
 10 11  1  0  0  0  0
 11 12  2  0  0  0  0
 11 17  1  0  0  0  0
 12 13  1  0  0  0  0
 12 14  1  0  0  0  0
 14 15  2  0  0  0  0
 15 16  1  0  0  0  0
 16 17  2  0  0  0  0
 18 19  1  0  0  0  0
 19 20  1  0  0  0  0
 19 47  1  0  0  0  0
 20 21  1  0  0  0  0
 21 22  1  0  0  0  0
 22 23  1  0  0  0  0
 22 24  1  0  0  0  0
 22 46  2  0  0  0  0
 24 25  1  0  0  0  0
 25 26  1  0  0  0  0
 25 27  1  0  0  0  0
 25 45  2  0  0  0  0
 27 28  1  0  0  0  0
 29 28  1  0  0  0  0
 29 30  1  0  0  0  0
 29 43  1  0  0  0  0
 30 31  1  0  0  0  0
 31 32  1  0  0  0  0
 31 41  1  0  0  0  0
 32 33  2  0  0  0  0
 32 40  1  0  0  0  0
 33 34  1  0  0  0  0
 34 35  2  0  0  0  0
 35 36  1  0  0  0  0
 36 37  1  0  0  0  0
 36 40  2  0  0  0  0
 37 38  1  0  0  0  0
 37 39  2  0  0  0  0
 41 42  1  0  0  0  0
 41 43  1  0  0  0  0
 43 44  1  0  0  0  0
 47 48  1  0  0  0  0
  6 51  1  0  0  0  0
  7 52  1  0  0  0  0
 47 53  1  0  0  0  0
  9 54  1  0  0  0  0
 13 55  1  0  0  0  0
 13 56  1  0  0  0  0
 15 57  1  0  0  0  0
 19 58  1  0  0  0  0
 20 59  1  0  0  0  0
 20 60  1  0  0  0  0
 23 61  1  0  0  0  0
 28 62  1  0  0  0  0
 28 63  1  0  0  0  0
 29 64  1  0  0  0  0
 43 65  1  0  0  0  0
 31 66  1  0  0  0  0
 41 67  1  0  0  0  0
 33 68  1  0  0  0  0
 40 69  1  0  0  0  0
 34 70  1  0  0  0  0
 35 71  1  0  0  0  0
 38 72  1  0  0  0  0
 38 73  1  0  0  0  0
 42 74  1  0  0  0  0
 44 75  1  0  0  0  0
 48 76  1  0  0  0  0
M  CHG  6   3  -1   4  -1  26  -1  32   1  49   1  50   1
M  END

> <energy>
129.85743270993459

> <StdInChI>
InChI=1S/C21H28N7O17P3.2Na/c22-17-12-19(25-7-24-17)28(8-26-12)21-16(44-46(33,34)35)14(30)11(43-21)6-41-48(38,39)45-47(36,37)40-5-10-13(29)15(31)20(42-10)27-3-1-2-9(4-27)18(23)32;;/h1-4,7-8,10-11,13-16,20-21,29-31H,5-6H2,(H7-,22,23,24,25,32,33,34,35,36,37,38,39);;/q;2*+1/p-2/t10-,11-,13-,14-,15-,16-,20-,21-;;/m1../s1

> <StdInChIKey>
WSDDJLMGYRLUKR-WUEGHLCSSA-L

> <AuxInfo>
1/2/N:34,35,33,40,28,20,15,9,36,29,19,11,43,47,41,6,12,37,17,31,7,13,38,14,16,10,32,8,44,48,42,39,1,3,4,26,45,23,46,27,21,30,18,5,24,2,25,22;49;50/E:(33,34,35)(36,37)(38,39);;/it:im;;/CRV:27+1,36-1;;/rA:76cOPO-O-OCCNCNCCNNCNCOCCOPOOPO-OCCOCN+CCCCCNOCCOCOOOCONa+Na+HHHHHHHHHHHHHHHHHHHHHHHHHH/rB:d1;s2;s2;s2;s5;s6;s7;s8;d9;s10;d11;s12;s12;d14;s15;s8s11d16;s7;s18;s19;s20;s21;s22;s22;s24;s25;s25;s27;s28;s29;s30;s31;d32;s33;d34;s35;s36;s37;d37;s32d36;s31;s41;s29s41;s43;d25;d22;s6s19;s47;;;s6;s7;s47;s9;s13;s13;s15;s19;s20;s20;s23;s28;s28;s29;s43;s31;s41;s33;s40;s34;s35;s38;s38;s42;s44;s48;/rC:4.4973,-10.8252,2.0015;6.0032,-10.8008,1.7608;6.4146,-11.3166,.385;6.8172,-11.3756,2.9165;6.3572,-9.1862,1.7036;7.5636,-8.6827,2.2772;8.7294,-8.9355,1.3127;9.8271,-9.6958,1.875;9.9733,-11.0509,1.7123;11.0841,-11.4995,2.2522;11.6712,-10.3959,2.8186;12.8797,-10.251,3.5172;13.7474,-11.3347,3.7316;13.1855,-9.0067,3.9802;12.3195,-7.9963,3.7291;11.1509,-8.0231,3.0559;10.888,-9.2642,2.6213;9.1886,-7.6493,.8355;8.0657,-6.7684,.9825;8.4575,-5.3052,.9064;8.93,-4.9751,-.3931;8.2427,-3.7743,-1.242;6.8457,-4.4232,-1.737;7.8021,-2.6779,-.139;6.3695,-1.9939,.2418;6.1202,-.8469,-.7139;6.7747,-1.3665,1.6997;6.9359,-2.2304,2.8202;8.1459,-1.8243,3.6514;8.6171,-2.9483,4.4192;9.9087,-2.5523,4.9157;10.7125,-3.703,5.4261;10.092,-4.677,6.1387;10.8144,-5.6956,6.7577;12.1985,-5.7143,6.6548;12.8193,-4.7064,5.9342;14.2817,-4.6483,5.8408;14.7978,-5.0819,4.6405;14.9339,-4.2222,6.786;12.0648,-3.7007,5.3436;10.546,-1.7934,3.7499;11.2889,-.6814,4.2238;9.3721,-1.3838,2.8628;9.3282,.0068,2.6037;5.3309,-3.0796,.435;9.0976,-3.2273,-2.3473;7.5136,-7.1632,2.3427;6.2294,-6.645,2.6122;14.7184,-4.6856,.0751;8.7979,-7.9323,-2.1712;7.6862,-9.1055,3.2787;8.3993,-9.4798,.421;8.1996,-6.8212,3.1289;9.2466,-11.6507,1.183;14.6648,-11.003,4.0224;13.8461,-11.9015,2.8919;12.6088,-7.0305,4.1192;7.3468,-6.9855,.1826;7.5688,-4.7164,1.1263;9.2322,-5.0475,1.6349;6.6127,-5.3273,-1.4384;6.0277,-2.1527,3.4254;7.0167,-3.2698,2.4989;7.8341,-1.0406,4.3549;9.4333,-1.921,1.9089;9.7591,-1.9117,5.7954;11.2144,-2.4289,3.1582;9.0149,-4.6074,6.241;12.5384,-2.8779,4.826;10.2993,-6.4553,7.3387;12.773,-6.4954,7.1426;14.2076,-5.4338,3.8925;15.7404,-4.8208,4.3674;10.7251,-.1816,4.8385;10.1273,.2313,2.0973;5.6536,-6.8517,1.857;

> <Formula>
C21 H26 N7 Na2 O17 P3

> <Mw>
787.3687

> <SMILES>
O=P(O[C@]1([H])[C@]([H])(O[H])[C@@]([H])(C([H])([H])O[P@](=O)(O[P@@](=O)(OC([H])([H])[C@]2([H])[C@@]([H])(O[H])[C@@]([H])(O[H])[C@]([H])([N+]3C([H])=C(C(=O)N([H])[H])C([H])=C([H])C=3[H])O2)[O-])O[H])O[C@@]1([H])N1C2=NC([H])=NC(N([H])[H])=C2N=C1[H])([O-])[O-].[Na+].[Na+]

> <CSID>
2016163

$$$$
