6215
  Marvin  12300703363D          

 62 66  0  0  1  0            999 V2000
   -1.4155   -1.4972    1.2148 F   0  0  0  0  0  0  0  0  0  0  0  0
   -5.0442    0.9713    0.1906 F   0  0  0  0  0  0  0  0  0  0  0  0
    2.5747    0.6340    1.3899 O   0  0  0  0  0  0  0  0  0  0  0  0
    1.8952    2.7766    1.6480 O   0  0  0  0  0  0  0  0  0  0  0  0
   -0.1493   -2.4210   -2.0310 O   0  0  0  0  0  0  0  0  0  0  0  0
    4.2212   -0.1205   -0.6248 O   0  0  0  0  0  0  0  0  0  0  0  0
    4.0074    2.1970   -2.6125 O   0  0  0  0  0  0  0  0  0  0  0  0
   -5.6466   -3.4775    2.0520 O   0  0  0  0  0  0  0  0  0  0  0  0
    1.2070    0.1735   -0.6511 C   0  0  1  0  0  0  0  0  0  0  0  0
   -0.0784    0.7848    0.0008 C   0  0  2  0  0  0  0  0  0  0  0  0
   -1.4259    0.1523   -0.4952 C   0  0  1  0  0  0  0  0  0  0  0  0
    2.3447    1.0427    0.0273 C   0  0  1  0  0  0  0  0  0  0  0  0
   -1.4803   -1.3942   -0.1704 C   0  0  1  0  0  0  0  0  0  0  0  0
    1.6788    2.4308    0.2729 C   0  0  1  0  0  0  0  0  0  0  0  0
    0.1695    2.3044   -0.0542 C   0  0  0  0  0  0  0  0  0  0  0  0
    1.1795   -1.3584   -0.2996 C   0  0  0  0  0  0  0  0  0  0  0  0
   -0.1524   -2.1088   -0.6415 C   0  0  2  0  0  0  0  0  0  0  0  0
   -2.8771   -2.0578   -0.5715 C   0  0  1  0  0  0  0  0  0  0  0  0
   -2.6821    0.9055    0.0386 C   0  0  0  0  0  0  0  0  0  0  0  0
    1.2687    0.3392   -2.2180 C   0  0  0  0  0  0  0  0  0  0  0  0
   -4.0180    0.2195   -0.3459 C   0  0  1  0  0  0  0  0  0  0  0  0
    3.6720    0.9733   -0.6111 C   0  0  0  0  0  0  0  0  0  0  0  0
    2.7150    1.7712    2.2509 C   0  0  1  0  0  0  0  0  0  0  0  0
   -3.9759   -1.2091    0.0062 C   0  0  0  0  0  0  0  0  0  0  0  0
   -3.1509   -2.2041   -2.1127 C   0  0  0  0  0  0  0  0  0  0  0  0
   -2.9307   -3.4567   -0.0763 C   0  0  0  0  0  0  0  0  0  0  0  0
    4.4035    2.0541   -1.2550 C   0  0  0  0  0  0  0  0  0  0  0  0
    2.1433    1.4062    3.6441 C   0  0  0  0  0  0  0  0  0  0  0  0
    4.1904    2.2337    2.4177 C   0  0  0  0  0  0  0  0  0  0  0  0
   -4.8721   -1.7435    0.8718 C   0  0  0  0  0  0  0  0  0  0  0  0
   -3.8603   -3.8905    0.7911 C   0  0  0  0  0  0  0  0  0  0  0  0
   -4.8184   -3.0483    1.2578 C   0  0  0  0  0  0  0  0  0  0  0  0
   -0.0697    0.5811    1.0801 H   0  0  0  0  0  0  0  0  0  0  0  0
   -1.4794    0.2751   -1.5784 H   0  0  0  0  0  0  0  0  0  0  0  0
    2.0666    3.2480   -0.3357 H   0  0  0  0  0  0  0  0  0  0  0  0
   -0.0584    2.6898   -1.0518 H   0  0  0  0  0  0  0  0  0  0  0  0
   -0.4523    2.8569    0.6553 H   0  0  0  0  0  0  0  0  0  0  0  0
    1.3463   -1.4928    0.7718 H   0  0  0  0  0  0  0  0  0  0  0  0
    2.0205   -1.8680   -0.7781 H   0  0  0  0  0  0  0  0  0  0  0  0
   -0.0849   -3.0899   -0.1617 H   0  0  0  0  0  0  0  0  0  0  0  0
   -2.6916    1.9257   -0.3573 H   0  0  0  0  0  0  0  0  0  0  0  0
   -2.6254    0.9874    1.1281 H   0  0  0  0  0  0  0  0  0  0  0  0
    1.3058    1.3838   -2.5266 H   0  0  0  0  0  0  0  0  0  0  0  0
    2.1574   -0.1439   -2.6299 H   0  0  0  0  0  0  0  0  0  0  0  0
    0.4270   -0.0975   -2.7489 H   0  0  0  0  0  0  0  0  0  0  0  0
   -4.1767    0.3229   -1.4209 H   0  0  0  0  0  0  0  0  0  0  0  0
   -3.0206   -1.2693   -2.6577 H   0  0  0  0  0  0  0  0  0  0  0  0
   -4.1707   -2.5491   -2.3082 H   0  0  0  0  0  0  0  0  0  0  0  0
   -2.4993   -2.9263   -2.6070 H   0  0  0  0  0  0  0  0  0  0  0  0
   -2.2578   -4.1183   -0.3927 H   0  0  0  0  0  0  0  0  0  0  0  0
    0.6598   -2.9550   -2.1804 H   0  0  0  0  0  0  0  0  0  0  0  0
    5.4808    1.8804   -1.2275 H   0  0  0  0  0  0  0  0  0  0  0  0
    4.2554    3.0158   -0.7667 H   0  0  0  0  0  0  0  0  0  0  0  0
    1.0973    1.1056    3.5740 H   0  0  0  0  0  0  0  0  0  0  0  0
    2.7027    0.5789    4.0885 H   0  0  0  0  0  0  0  0  0  0  0  0
    2.2022    2.2579    4.3257 H   0  0  0  0  0  0  0  0  0  0  0  0
    4.8071    1.4227    2.8114 H   0  0  0  0  0  0  0  0  0  0  0  0
    4.2608    3.0859    3.0954 H   0  0  0  0  0  0  0  0  0  0  0  0
    4.6361    2.5511    1.4817 H   0  0  0  0  0  0  0  0  0  0  0  0
   -5.5945   -1.1804    1.2593 H   0  0  0  0  0  0  0  0  0  0  0  0
   -3.8397   -4.8410    1.0872 H   0  0  0  0  0  0  0  0  0  0  0  0
    4.5024    2.9800   -2.9329 H   0  0  0  0  0  0  0  0  0  0  0  0
 13  1  1  0  0  0  0
  2 21  1  0  0  0  0
  3 12  1  0  0  0  0
  3 23  1  0  0  0  0
  4 14  1  0  0  0  0
  4 23  1  0  0  0  0
 17  5  1  0  0  0  0
  5 51  1  0  0  0  0
  6 22  2  0  0  0  0
  7 27  1  0  0  0  0
  7 62  1  0  0  0  0
  8 32  2  0  0  0  0
  9 10  1  0  0  0  0
  9 12  1  0  0  0  0
  9 16  1  0  0  0  0
  9 20  1  0  0  0  0
 10 11  1  0  0  0  0
 10 15  1  0  0  0  0
 10 33  1  0  0  0  0
 11 13  1  0  0  0  0
 11 19  1  0  0  0  0
 11 34  1  0  0  0  0
 12 14  1  0  0  0  0
 12 22  1  0  0  0  0
 13 17  1  0  0  0  0
 13 18  1  0  0  0  0
 14 15  1  0  0  0  0
 14 35  1  0  0  0  0
 15 36  1  0  0  0  0
 15 37  1  0  0  0  0
 16 17  1  0  0  0  0
 16 38  1  0  0  0  0
 16 39  1  0  0  0  0
 17 40  1  0  0  0  0
 18 24  1  0  0  0  0
 18 25  1  0  0  0  0
 18 26  1  0  0  0  0
 19 21  1  0  0  0  0
 19 41  1  0  0  0  0
 19 42  1  0  0  0  0
 20 43  1  0  0  0  0
 20 44  1  0  0  0  0
 20 45  1  0  0  0  0
 21 24  1  0  0  0  0
 21 46  1  0  0  0  0
 22 27  1  0  0  0  0
 23 28  1  0  0  0  0
 23 29  1  0  0  0  0
 24 30  2  0  0  0  0
 25 47  1  0  0  0  0
 25 48  1  0  0  0  0
 25 49  1  0  0  0  0
 26 31  2  0  0  0  0
 26 50  1  0  0  0  0
 27 52  1  0  0  0  0
 27 53  1  0  0  0  0
 28 54  1  0  0  0  0
 28 55  1  0  0  0  0
 28 56  1  0  0  0  0
 29 57  1  0  0  0  0
 29 58  1  0  0  0  0
 29 59  1  0  0  0  0
 30 32  1  0  0  0  0
 30 60  1  0  0  0  0
 31 32  1  0  0  0  0
 31 61  1  0  0  0  0
M  END

> <PUBCHEM_BONDANNOTATIONS>
13  1  6
10  33  6
11  34  5
12  22  5
14  35  5
18  25  5
21  46  5
17  5  5
9  20  5

> <StdInChI>
InChI=1S/C24H30F2O6/c1-20(2)31-19-9-13-14-8-16(25)15-7-12(28)5-6-21(15,3)23(14,26)17(29)10-22(13,4)24(19,32-20)18(30)11-27/h5-7,13-14,16-17,19,27,29H,8-11H2,1-4H3/t13-,14-,16-,17-,19+,21-,22-,23-,24+/m0/s1

> <StdInChIKey>
FEBLZLNTKCEFIT-VSXGLTOVSA-N

> <AuxInfo>
1/0/N:28,29,25,20,31,26,30,19,15,16,27,32,10,11,24,21,17,22,14,23,18,9,13,12,2,1,7,8,5,6,4,3/E:(1,2)/it:im/rA:62cFFOOOOOOCCCCCCCCCCCCCCCCCCCCCCCCHHHHHHHHHHHHHHHHHHHHHHHHHHHHHH/rB:;;;;;;;;s9;s10;s3s9;s1s11;s4s12;s10s14;s9;s5s13s16;s13;s11;s9;s2s19;d6s12;s3s4;s18s21;s18;s18;s7s22;s23;s23;d24;d26;d8s30s31;s10;s11;s14;s15;s15;s16;s16;s17;s19;s19;s20;s20;s20;s21;s25;s25;s25;s26;s5;s27;s27;s28;s28;s28;s29;s29;s29;s30;s31;s7;/rC:-1.4155,-1.4972,1.2148;-5.0442,.9713,.1906;2.5747,.634,1.3899;1.8952,2.7766,1.648;-.1493,-2.421,-2.031;4.2212,-.1205,-.6248;4.0074,2.197,-2.6125;-5.6466,-3.4775,2.052;1.207,.1735,-.6511;-.0784,.7848,.0008;-1.4259,.1523,-.4952;2.3447,1.0427,.0273;-1.4803,-1.3942,-.1704;1.6788,2.4308,.2729;.1695,2.3044,-.0542;1.1795,-1.3584,-.2996;-.1524,-2.1088,-.6415;-2.8771,-2.0578,-.5715;-2.6821,.9055,.0386;1.2687,.3392,-2.218;-4.018,.2195,-.3459;3.672,.9733,-.6111;2.715,1.7712,2.2509;-3.9759,-1.2091,.0062;-3.1509,-2.2041,-2.1127;-2.9307,-3.4567,-.0763;4.4035,2.0541,-1.255;2.1433,1.4062,3.6441;4.1904,2.2337,2.4177;-4.8721,-1.7435,.8718;-3.8603,-3.8905,.7911;-4.8184,-3.0483,1.2578;-.0697,.5811,1.0801;-1.4794,.2751,-1.5784;2.0666,3.248,-.3357;-.0584,2.6898,-1.0518;-.4523,2.8569,.6553;1.3463,-1.4928,.7718;2.0205,-1.868,-.7781;-.0849,-3.0899,-.1617;-2.6916,1.9257,-.3573;-2.6254,.9874,1.1281;1.3058,1.3838,-2.5266;2.1574,-.1439,-2.6299;.427,-.0975,-2.7489;-4.1767,.3229,-1.4209;-3.0206,-1.2693,-2.6577;-4.1707,-2.5491,-2.3082;-2.4993,-2.9263,-2.607;-2.2578,-4.1183,-.3927;.6598,-2.955,-2.1804;5.4808,1.8804,-1.2275;4.2554,3.0158,-.7667;1.0973,1.1056,3.574;2.7027,.5789,4.0885;2.2022,2.2579,4.3257;4.8071,1.4227,2.8114;4.2608,3.0859,3.0954;4.6361,2.5511,1.4817;-5.5945,-1.1804,1.2593;-3.8397,-4.841,1.0872;4.5024,2.98,-2.9329;

> <Formula>
C24 H30 F2 O6

> <Mw>
452.4882

> <SMILES>
F[C@@]12[C@]3(C([H])=C([H])C(C([H])=C3[C@]([H])(C([H])([H])[C@@]1([H])[C@]1([H])C([H])([H])[C@]3([H])[C@](C(C([H])([H])O[H])=O)([C@@]1(C([H])([H])[H])C([H])([H])[C@]2([H])O[H])OC(C([H])([H])[H])(C([H])([H])[H])O3)F)=O)C([H])([H])[H]

> <CSID>
5980

$$$$
