449241
  Marvin  12310709493D          

 47 49  0  0  0  0            999 V2000
  -10.2560    1.2424   -2.7879 Br  0  0  0  0  0  0  0  0  0  0  0  0
    2.4442   -1.8156    2.3007 S   0  0  2  0  0  0  0  0  0  0  0  0
    1.9410   -3.3225    2.4062 O   0  0  0  0  0  0  0  0  0  0  0  0
    1.9090   -1.0353    3.5783 O   0  0  0  0  0  0  0  0  0  0  0  0
    1.7857   -1.1686    0.9348 N   0  0  0  0  0  0  0  0  0  0  0  0
   -1.3149   -0.0234   -0.5967 N   0  0  0  0  0  0  0  0  0  0  0  0
    6.2720    2.0132    2.1231 N   0  0  0  0  0  0  0  0  0  0  0  0
    4.1787   -1.6494    2.1993 C   0  0  0  0  0  0  0  0  0  0  0  0
    0.4362   -0.9014    0.8100 C   0  0  0  0  0  0  0  0  0  0  0  0
    4.8540   -0.3953    2.1630 C   0  0  0  0  0  0  0  0  0  0  0  0
    0.1470   -0.1144   -0.4811 C   0  0  0  0  0  0  0  0  0  0  0  0
    6.2828   -0.3838    2.1380 C   0  0  0  0  0  0  0  0  0  0  0  0
    4.9251   -2.8471    2.1638 C   0  0  0  0  0  0  0  0  0  0  0  0
    7.0052   -1.5966    2.1253 C   0  0  0  0  0  0  0  0  0  0  0  0
    4.1867    0.8569    2.1502 C   0  0  0  0  0  0  0  0  0  0  0  0
    6.3269   -2.8232    2.1286 C   0  0  0  0  0  0  0  0  0  0  0  0
   -1.8773    0.6686   -1.7684 C   0  0  0  0  0  0  0  0  0  0  0  0
    6.9676    0.8509    2.1263 C   0  0  0  0  0  0  0  0  0  0  0  0
    4.9199    2.0561    2.1310 C   0  0  0  0  0  0  0  0  0  0  0  0
   -3.3229    0.6170   -1.6958 C   0  0  0  0  0  0  0  0  0  0  0  0
   -4.1446    1.1477   -2.6158 C   0  0  0  0  0  0  0  0  0  0  0  0
   -5.5438    1.1431   -2.6143 C   0  0  0  0  0  0  0  0  0  0  0  0
   -6.2331    1.7623   -3.6888 C   0  0  0  0  0  0  0  0  0  0  0  0
   -6.3416    0.5546   -1.5969 C   0  0  0  0  0  0  0  0  0  0  0  0
   -7.6382    1.7951   -3.7464 C   0  0  0  0  0  0  0  0  0  0  0  0
   -7.7463    0.5816   -1.6446 C   0  0  0  0  0  0  0  0  0  0  0  0
   -8.3973    1.2039   -2.7223 C   0  0  0  0  0  0  0  0  0  0  0  0
    0.0809   -0.3193    1.6641 H   0  0  0  0  0  0  0  0  0  0  0  0
   -0.0988   -1.8541    0.7905 H   0  0  0  0  0  0  0  0  0  0  0  0
    2.3473   -1.0131    0.2001 H   0  0  0  0  0  0  0  0  0  0  0  0
    0.5870    0.8855   -0.4217 H   0  0  0  0  0  0  0  0  0  0  0  0
    0.5571   -0.6381   -1.3491 H   0  0  0  0  0  0  0  0  0  0  0  0
    4.4704   -3.7633    2.1658 H   0  0  0  0  0  0  0  0  0  0  0  0
   -1.6557    0.4621    0.2366 H   0  0  0  0  0  0  0  0  0  0  0  0
    8.0283   -1.6053    2.1103 H   0  0  0  0  0  0  0  0  0  0  0  0
    3.1693    0.9378    2.1518 H   0  0  0  0  0  0  0  0  0  0  0  0
    6.8521   -3.7005    2.1092 H   0  0  0  0  0  0  0  0  0  0  0  0
   -1.5393    0.1756   -2.6834 H   0  0  0  0  0  0  0  0  0  0  0  0
   -1.5453    1.7094   -1.7738 H   0  0  0  0  0  0  0  0  0  0  0  0
    7.9885    0.9030    2.1190 H   0  0  0  0  0  0  0  0  0  0  0  0
    4.4460    2.9616    2.1232 H   0  0  0  0  0  0  0  0  0  0  0  0
   -3.7154    0.1578   -0.9084 H   0  0  0  0  0  0  0  0  0  0  0  0
   -3.6876    1.5936   -3.3816 H   0  0  0  0  0  0  0  0  0  0  0  0
   -5.7229    2.2065   -4.4583 H   0  0  0  0  0  0  0  0  0  0  0  0
   -5.9342    0.0866   -0.7862 H   0  0  0  0  0  0  0  0  0  0  0  0
   -8.1047    2.2495   -4.5339 H   0  0  0  0  0  0  0  0  0  0  0  0
   -8.2891    0.1479   -0.8937 H   0  0  0  0  0  0  0  0  0  0  0  0
  1 27  1  0  0  0  0
  2  3  2  0  0  0  0
  2  4  2  0  0  0  0
  2  5  1  0  0  0  0
  2  8  1  0  0  0  0
  5  9  1  0  0  0  0
  5 30  1  0  0  0  0
  6 11  1  0  0  0  0
  6 17  1  0  0  0  0
  6 34  1  0  0  0  0
  7 18  2  0  0  0  0
  7 19  1  0  0  0  0
  8 10  1  0  0  0  0
  8 13  2  0  0  0  0
  9 11  1  0  0  0  0
  9 28  1  0  0  0  0
  9 29  1  0  0  0  0
 10 12  2  0  0  0  0
 10 15  1  0  0  0  0
 11 31  1  0  0  0  0
 11 32  1  0  0  0  0
 12 14  1  0  0  0  0
 12 18  1  0  0  0  0
 13 16  1  0  0  0  0
 13 33  1  0  0  0  0
 14 16  2  0  0  0  0
 14 35  1  0  0  0  0
 15 19  2  0  0  0  0
 15 36  1  0  0  0  0
 16 37  1  0  0  0  0
 17 20  1  0  0  0  0
 17 38  1  0  0  0  0
 17 39  1  0  0  0  0
 18 40  1  0  0  0  0
 19 41  1  0  0  0  0
 20 21  2  0  0  0  0
 20 42  1  0  0  0  0
 21 22  1  0  0  0  0
 21 43  1  0  0  0  0
 22 23  2  0  0  0  0
 22 24  1  0  0  0  0
 23 25  1  0  0  0  0
 23 44  1  0  0  0  0
 24 26  2  0  0  0  0
 24 45  1  0  0  0  0
 25 27  2  0  0  0  0
 25 46  1  0  0  0  0
 26 27  1  0  0  0  0
 26 47  1  0  0  0  0
M  END

> <PUBCHEM_BONDANNOTATIONS>
10  12  8
10  15  8
12  14  8
12  18  8
13  16  8
14  16  8
15  19  8
22  23  8
22  24  8
23  25  8
24  26  8
25  27  8
26  27  8
7  18  8
7  19  8
8  10  8
8  13  8

> <StdInChI>
InChI=1S/C20H20BrN3O2S/c21-18-8-6-16(7-9-18)3-2-11-22-13-14-24-27(25,26)20-5-1-4-17-15-23-12-10-19(17)20/h1-10,12,15,22,24H,11,13-14H2/b3-2+

> <StdInChIKey>
ZKZXNDJNWUTGDK-NSCUHMNNSA-N

> <AuxInfo>
1/0/N:16,20,21,14,13,23,24,25,26,15,17,19,11,9,18,22,12,27,10,8,1,6,7,5,3,4,2/E:(6,7)(8,9)(25,26)/CRV:27.6/rA:47nBrSOONNNCCCCCCCCCCCCCCCCCCCCHHHHHHHHHHHHHHHHHHHH/rB:;d2;d2;s2;;;s2;s5;s8;s6s9;d10;d8;s12;s10;s13d14;s6;d7s12;s7d15;s17;d20;s21;d22;s22;s23;d24;s1d25s26;s9;s9;s5;s11;s11;s13;s6;s14;s15;s16;s17;s17;s18;s19;s20;s21;s23;s24;s25;s26;/rC:-10.256,1.2424,-2.7879;2.4442,-1.8156,2.3007;1.941,-3.3225,2.4062;1.909,-1.0353,3.5783;1.7857,-1.1686,.9348;-1.3149,-.0234,-.5967;6.272,2.0132,2.1231;4.1787,-1.6494,2.1993;.4362,-.9014,.81;4.854,-.3953,2.163;.147,-.1144,-.4811;6.2828,-.3838,2.138;4.9251,-2.8471,2.1638;7.0052,-1.5966,2.1253;4.1867,.8569,2.1502;6.3269,-2.8232,2.1286;-1.8773,.6686,-1.7684;6.9676,.8509,2.1263;4.9199,2.0561,2.131;-3.3229,.617,-1.6958;-4.1446,1.1477,-2.6158;-5.5438,1.1431,-2.6143;-6.2331,1.7623,-3.6888;-6.3416,.5546,-1.5969;-7.6382,1.7951,-3.7464;-7.7463,.5816,-1.6446;-8.3973,1.2039,-2.7223;.0809,-.3193,1.6641;-.0988,-1.8541,.7905;2.3473,-1.0131,.2001;.587,.8855,-.4217;.5571,-.6381,-1.3491;4.4704,-3.7633,2.1658;-1.6557,.4621,.2366;8.0283,-1.6053,2.1103;3.1693,.9378,2.1518;6.8521,-3.7005,2.1092;-1.5393,.1756,-2.6834;-1.5453,1.7094,-1.7738;7.9885,.903,2.119;4.446,2.9616,2.1232;-3.7154,.1578,-.9084;-3.6876,1.5936,-3.3816;-5.7229,2.2065,-4.4583;-5.9342,.0866,-.7862;-8.1047,2.2495,-4.5339;-8.2891,.1479,-.8937;

> <Formula>
C20 H20 Br N3 O2 S

> <Mw>
446.3607

> <SMILES>
BrC1C([H])=C([H])C(=C([H])C=1[H])/C(/[H])=C(\[H])/C([H])([H])[N@]([H])C([H])([H])C([H])([H])N([H])S(C1=C([H])C([H])=C([H])C2C([H])=NC([H])=C([H])C1=2)(=O)=O

> <CSID>
395827

$$$$
