55245
  Marvin  12300706533D          

 67 71  0  0  1  0            999 V2000
    3.1072   -1.0562    3.3995 O   0  0  0  0  0  0  0  0  0  0  0  0
   -6.2572    0.9969   -1.5626 O   0  0  0  0  0  0  0  0  0  0  0  0
    2.4401   -0.0783   -5.0800 N   0  0  0  0  0  0  0  0  0  0  0  0
    1.2702   -0.2039    1.8917 C   0  0  1  0  0  0  0  0  0  0  0  0
    0.1645    0.8675    2.1656 C   0  0  2  0  0  0  0  0  0  0  0  0
   -0.5630    1.3411    0.8555 C   0  0  1  0  0  0  0  0  0  0  0  0
    1.7977   -0.4783    3.3519 C   0  0  2  0  0  0  0  0  0  0  0  0
    0.5204   -1.3688    1.1421 C   0  0  0  0  0  0  0  0  0  0  0  0
    0.8581    1.8380    3.1528 C   0  0  0  0  0  0  0  0  0  0  0  0
    1.7870    0.9385    4.0111 C   0  0  0  0  0  0  0  0  0  0  0  0
   -0.3256   -0.9652   -0.1288 C   0  0  1  0  0  0  0  0  0  0  0  0
   -1.2381    0.1685    0.2161 C   0  0  0  0  0  0  0  0  0  0  0  0
   -1.4723    2.5906    1.0745 C   0  0  0  0  0  0  0  0  0  0  0  0
    2.4923    0.3355    1.0491 C   0  0  0  0  0  0  0  0  0  0  0  0
   -2.5949    0.1698    0.0197 C   0  0  0  0  0  0  0  0  0  0  0  0
   -2.8963    2.1516    1.4659 C   0  0  0  0  0  0  0  0  0  0  0  0
    0.3573   -0.8217   -1.4665 C   0  0  0  0  0  0  0  0  0  0  0  0
   -3.3969    1.2461    0.4296 C   0  0  0  0  0  0  0  0  0  0  0  0
    1.0831   -1.3748    4.1211 C   0  0  0  0  0  0  0  0  0  0  0  0
   -3.3613   -0.9191   -0.6310 C   0  0  0  0  0  0  0  0  0  0  0  0
   -4.6142    1.4964   -0.1149 C   0  0  0  0  0  0  0  0  0  0  0  0
   -4.4137   -0.3910   -1.6477 C   0  0  0  0  0  0  0  0  0  0  0  0
   -0.3227   -0.3684   -2.6270 C   0  0  0  0  0  0  0  0  0  0  0  0
    1.7167   -1.1657   -1.6602 C   0  0  0  0  0  0  0  0  0  0  0  0
   -5.1532    0.7320   -1.1010 C   0  0  0  0  0  0  0  0  0  0  0  0
    0.4842   -2.1367    4.8190 C   0  0  0  0  0  0  0  0  0  0  0  0
    0.3398   -0.1540   -3.8547 C   0  0  0  0  0  0  0  0  0  0  0  0
    2.4023   -0.9039   -2.8523 C   0  0  0  0  0  0  0  0  0  0  0  0
    1.7331   -0.3703   -3.9719 C   0  0  0  0  0  0  0  0  0  0  0  0
   -0.1869   -2.9902    5.6408 C   0  0  0  0  0  0  0  0  0  0  0  0
    2.5245    1.2660   -5.4985 C   0  0  0  0  0  0  0  0  0  0  0  0
    3.2539   -1.0581   -5.6902 C   0  0  0  0  0  0  0  0  0  0  0  0
   -0.6386    0.4247    2.7734 H   0  0  0  0  0  0  0  0  0  0  0  0
    0.1868    1.7129    0.1550 H   0  0  0  0  0  0  0  0  0  0  0  0
   -0.1942   -1.8205    1.8388 H   0  0  0  0  0  0  0  0  0  0  0  0
    1.2077   -2.1928    0.9434 H   0  0  0  0  0  0  0  0  0  0  0  0
    1.4326    2.5907    2.6057 H   0  0  0  0  0  0  0  0  0  0  0  0
    0.1386    2.3702    3.7807 H   0  0  0  0  0  0  0  0  0  0  0  0
   -0.8733   -1.8941   -0.2859 H   0  0  0  0  0  0  0  0  0  0  0  0
    2.7941    1.3659    4.0174 H   0  0  0  0  0  0  0  0  0  0  0  0
    1.4640    0.9443    5.0581 H   0  0  0  0  0  0  0  0  0  0  0  0
   -1.5347    3.1760    0.1499 H   0  0  0  0  0  0  0  0  0  0  0  0
   -1.0749    3.2767    1.8248 H   0  0  0  0  0  0  0  0  0  0  0  0
    3.0641    1.1171    1.5505 H   0  0  0  0  0  0  0  0  0  0  0  0
    3.2112   -0.4608    0.8525 H   0  0  0  0  0  0  0  0  0  0  0  0
    2.2171    0.7752    0.0950 H   0  0  0  0  0  0  0  0  0  0  0  0
   -2.8803    1.6253    2.4241 H   0  0  0  0  0  0  0  0  0  0  0  0
   -3.4989    3.0527    1.6219 H   0  0  0  0  0  0  0  0  0  0  0  0
    3.0538   -1.8904    2.8845 H   0  0  0  0  0  0  0  0  0  0  0  0
   -3.8860   -1.4674    0.1582 H   0  0  0  0  0  0  0  0  0  0  0  0
   -2.7926   -1.6628   -1.1847 H   0  0  0  0  0  0  0  0  0  0  0  0
   -5.1552    2.2710    0.2012 H   0  0  0  0  0  0  0  0  0  0  0  0
   -5.0859   -1.2067   -1.9297 H   0  0  0  0  0  0  0  0  0  0  0  0
   -3.9138   -0.0482   -2.5582 H   0  0  0  0  0  0  0  0  0  0  0  0
   -1.3246   -0.1743   -2.6035 H   0  0  0  0  0  0  0  0  0  0  0  0
    2.2713   -1.6058   -0.9330 H   0  0  0  0  0  0  0  0  0  0  0  0
   -0.2011    0.1693   -4.6609 H   0  0  0  0  0  0  0  0  0  0  0  0
    3.4062   -1.0995   -2.8822 H   0  0  0  0  0  0  0  0  0  0  0  0
   -1.2602   -2.8529    5.5096 H   0  0  0  0  0  0  0  0  0  0  0  0
    0.0819   -4.0196    5.4027 H   0  0  0  0  0  0  0  0  0  0  0  0
    0.0819   -2.7763    6.6757 H   0  0  0  0  0  0  0  0  0  0  0  0
    1.5625    1.7835   -5.4903 H   0  0  0  0  0  0  0  0  0  0  0  0
    2.9179    1.3884   -6.5104 H   0  0  0  0  0  0  0  0  0  0  0  0
    3.1996    1.8036   -4.8278 H   0  0  0  0  0  0  0  0  0  0  0  0
    3.3588   -0.9180   -6.7677 H   0  0  0  0  0  0  0  0  0  0  0  0
    2.8723   -2.0740   -5.5535 H   0  0  0  0  0  0  0  0  0  0  0  0
    4.2553   -1.0171   -5.2539 H   0  0  0  0  0  0  0  0  0  0  0  0
  7  1  1  0  0  0  0
  1 49  1  0  0  0  0
  2 25  2  0  0  0  0
  3 29  1  0  0  0  0
  3 31  1  0  0  0  0
  3 32  1  0  0  0  0
  4  5  1  0  0  0  0
  4  7  1  0  0  0  0
  4  8  1  0  0  0  0
  4 14  1  0  0  0  0
  5  6  1  0  0  0  0
  5  9  1  0  0  0  0
  5 33  1  0  0  0  0
  6 12  1  0  0  0  0
  6 13  1  0  0  0  0
  6 34  1  0  0  0  0
  7 10  1  0  0  0  0
  7 19  1  0  0  0  0
  8 11  1  0  0  0  0
  8 35  1  0  0  0  0
  8 36  1  0  0  0  0
  9 10  1  0  0  0  0
  9 37  1  0  0  0  0
  9 38  1  0  0  0  0
 10 40  1  0  0  0  0
 10 41  1  0  0  0  0
 11 12  1  0  0  0  0
 11 17  1  0  0  0  0
 11 39  1  0  0  0  0
 12 15  2  0  0  0  0
 13 16  1  0  0  0  0
 13 42  1  0  0  0  0
 13 43  1  0  0  0  0
 14 44  1  0  0  0  0
 14 45  1  0  0  0  0
 14 46  1  0  0  0  0
 15 18  1  0  0  0  0
 15 20  1  0  0  0  0
 16 18  1  0  0  0  0
 16 47  1  0  0  0  0
 16 48  1  0  0  0  0
 17 23  2  0  0  0  0
 17 24  1  0  0  0  0
 18 21  2  0  0  0  0
 19 26  3  0  0  0  0
 20 22  1  0  0  0  0
 20 50  1  0  0  0  0
 20 51  1  0  0  0  0
 21 25  1  0  0  0  0
 21 52  1  0  0  0  0
 22 25  1  0  0  0  0
 22 53  1  0  0  0  0
 22 54  1  0  0  0  0
 23 27  1  0  0  0  0
 23 55  1  0  0  0  0
 24 28  2  0  0  0  0
 24 56  1  0  0  0  0
 26 30  1  0  0  0  0
 27 29  2  0  0  0  0
 27 57  1  0  0  0  0
 28 29  1  0  0  0  0
 28 58  1  0  0  0  0
 30 59  1  0  0  0  0
 30 60  1  0  0  0  0
 30 61  1  0  0  0  0
 31 62  1  0  0  0  0
 31 63  1  0  0  0  0
 31 64  1  0  0  0  0
 32 65  1  0  0  0  0
 32 66  1  0  0  0  0
 32 67  1  0  0  0  0
M  END

> <PUBCHEM_BONDANNOTATIONS>
7  1  5
11  17  5
17  23  8
17  24  8
23  27  8
24  28  8
27  29  8
28  29  8
4  14  5
5  33  6
6  34  5

> <StdInChI>
InChI=1S/C29H35NO2/c1-5-15-29(32)16-14-26-24-12-8-20-17-22(31)11-13-23(20)27(24)25(18-28(26,29)2)19-6-9-21(10-7-19)30(3)4/h6-7,9-10,17,24-26,32H,8,11-14,16,18H2,1-4H3/t24-,25+,26-,28-,29-/m0/s1

> <StdInChIKey>
VKHAHZOOUSRJNA-GCNJZUOMSA-N

> <AuxInfo>
1/0/N:30,14,31,32,26,23,24,16,27,28,22,13,20,9,19,10,21,8,17,18,29,25,15,6,11,5,12,4,7,3,2,1/E:(3,4)(6,7)(9,10)/it:im/rA:67cOONCCCCCCCCCCCCCCCCCCCCCCCCCCCCCHHHHHHHHHHHHHHHHHHHHHHHHHHHHHHHHHHH/rB:;;;s4;s5;s1s4;s4;s5;s7s9;s8;s6s11;s6;s4;d12;s13;s11;s15s16;s7;s15;d18;s20;d17;s17;d2s21s22;t19;s23;d24;s3d27s28;s26;s3;s3;s5;s6;s8;s8;s9;s9;s11;s10;s10;s13;s13;s14;s14;s14;s16;s16;s1;s20;s20;s21;s22;s22;s23;s24;s27;s28;s30;s30;s30;s31;s31;s31;s32;s32;s32;/rC:3.1072,-1.0562,3.3995;-6.2572,.9969,-1.5626;2.4401,-.0783,-5.08;1.2702,-.2039,1.8917;.1645,.8675,2.1656;-.563,1.3411,.8555;1.7977,-.4783,3.3519;.5204,-1.3688,1.1421;.8581,1.838,3.1528;1.787,.9385,4.0111;-.3256,-.9652,-.1288;-1.2381,.1685,.2161;-1.4723,2.5906,1.0745;2.4923,.3355,1.0491;-2.5949,.1698,.0197;-2.8963,2.1516,1.4659;.3573,-.8217,-1.4665;-3.3969,1.2461,.4296;1.0831,-1.3748,4.1211;-3.3613,-.9191,-.631;-4.6142,1.4964,-.1149;-4.4137,-.391,-1.6477;-.3227,-.3684,-2.627;1.7167,-1.1657,-1.6602;-5.1532,.732,-1.101;.4842,-2.1367,4.819;.3398,-.154,-3.8547;2.4023,-.9039,-2.8523;1.7331,-.3703,-3.9719;-.1869,-2.9902,5.6408;2.5245,1.266,-5.4985;3.2539,-1.0581,-5.6902;-.6386,.4247,2.7734;.1868,1.7129,.155;-.1942,-1.8205,1.8388;1.2077,-2.1928,.9434;1.4326,2.5907,2.6057;.1386,2.3702,3.7807;-.8733,-1.8941,-.2859;2.7941,1.3659,4.0174;1.464,.9443,5.0581;-1.5347,3.176,.1499;-1.0749,3.2767,1.8248;3.0641,1.1171,1.5505;3.2112,-.4608,.8525;2.2171,.7752,.095;-2.8803,1.6253,2.4241;-3.4989,3.0527,1.6219;3.0538,-1.8904,2.8845;-3.886,-1.4674,.1582;-2.7926,-1.6628,-1.1847;-5.1552,2.271,.2012;-5.0859,-1.2067,-1.9297;-3.9138,-.0482,-2.5582;-1.3246,-.1743,-2.6035;2.2713,-1.6058,-.933;-.2011,.1693,-4.6609;3.4062,-1.0995,-2.8822;-1.2602,-2.8529,5.5096;.0819,-4.0196,5.4027;.0819,-2.7763,6.6757;1.5625,1.7835,-5.4903;2.9179,1.3884,-6.5104;3.1996,1.8036,-4.8278;3.3588,-.918,-6.7677;2.8723,-2.074,-5.5535;4.2553,-1.0171,-5.2539;

> <Formula>
C29 H35 N O2

> <Mw>
429.5937

> <SMILES>
O([H])[C@@]1(C#CC([H])([H])[H])C([H])([H])C([H])([H])[C@@]2([H])[C@]3([H])C([H])([H])C([H])([H])C4=C([H])C(C([H])([H])C([H])([H])C4=C3[C@@]([H])(C3C([H])=C([H])C(=C([H])C=3[H])N(C([H])([H])[H])C([H])([H])[H])C([H])([H])[C@@]21C([H])([H])[H])=O

> <CSID>
49889

$$$$
