35370
  Marvin  12300703363D          

 32 33  0  0  1  0            999 V2000
   -0.5310   -0.8819    0.8815 O   0  0  0  0  0  0  0  0  0  0  0  0
   -0.2298   -2.6223    3.1439 O   0  0  0  0  0  0  0  0  0  0  0  0
   -3.1362    1.2960   -0.2256 O   0  0  0  0  0  0  0  0  0  0  0  0
   -1.0013    4.9837   -0.1074 O   0  0  0  0  0  0  0  0  0  0  0  0
   -0.8687    1.0810   -0.2952 N   0  0  0  0  0  0  0  0  0  0  0  0
    0.1086   -3.5070   -1.3511 N   0  0  0  0  0  0  0  0  0  0  0  0
   -2.0021    3.0894   -0.2431 N   0  0  0  0  0  0  0  0  0  0  0  0
    0.8157   -4.3055   -1.8172 N   0  3  0  0  0  0  0  0  0  0  0  0
    1.5205   -5.1074   -2.2755 N   0  5  0  0  0  0  0  0  0  0  0  0
    0.4961   -2.3732   -0.6374 C   0  0  1  0  0  0  0  0  0  0  0  0
   -0.8569   -0.3406   -0.4013 C   0  0  1  0  0  0  0  0  0  0  0  0
    0.1314   -1.0539   -1.3621 C   0  0  0  0  0  0  0  0  0  0  0  0
   -0.2500   -2.2748    0.7192 C   0  0  1  0  0  0  0  0  0  0  0  0
    0.5361   -2.7714    1.9532 C   0  0  0  0  0  0  0  0  0  0  0  0
    0.2745    1.7724   -0.1791 C   0  0  0  0  0  0  0  0  0  0  0  0
   -2.0129    1.7807   -0.2668 C   0  0  0  0  0  0  0  0  0  0  0  0
    0.3314    3.1260   -0.1417 C   0  0  0  0  0  0  0  0  0  0  0  0
   -0.8871    3.7675   -0.1683 C   0  0  0  0  0  0  0  0  0  0  0  0
    1.5896    3.8603   -0.0792 C   0  0  0  0  0  0  0  0  0  0  0  0
    1.5791   -2.3790   -0.4558 H   0  0  0  0  0  0  0  0  0  0  0  0
   -1.8460   -0.7333   -0.6769 H   0  0  0  0  0  0  0  0  0  0  0  0
   -0.3156   -1.2033   -2.3490 H   0  0  0  0  0  0  0  0  0  0  0  0
    1.0458   -0.4832   -1.5360 H   0  0  0  0  0  0  0  0  0  0  0  0
   -1.2060   -2.8132    0.6869 H   0  0  0  0  0  0  0  0  0  0  0  0
    0.7949   -3.8252    1.8367 H   0  0  0  0  0  0  0  0  0  0  0  0
    1.4572   -2.1963    2.0703 H   0  0  0  0  0  0  0  0  0  0  0  0
    1.1384    1.2854   -0.1159 H   0  0  0  0  0  0  0  0  0  0  0  0
   -2.8149    3.5528   -0.2732 H   0  0  0  0  0  0  0  0  0  0  0  0
    0.3598   -2.9294    3.8645 H   0  0  0  0  0  0  0  0  0  0  0  0
    1.6534    4.5596   -0.9156 H   0  0  0  0  0  0  0  0  0  0  0  0
    1.6512    4.4235    0.8533 H   0  0  0  0  0  0  0  0  0  0  0  0
    2.4748    3.2226   -0.1359 H   0  0  0  0  0  0  0  0  0  0  0  0
  1 11  1  0  0  0  0
  1 13  1  0  0  0  0
  2 14  1  0  0  0  0
  2 29  1  0  0  0  0
  3 16  2  0  0  0  0
  4 18  2  0  0  0  0
 11  5  1  0  0  0  0
  5 15  1  0  0  0  0
  5 16  1  0  0  0  0
  6  8  2  3  0  0  0
 10  6  1  0  0  0  0
  7 16  1  0  0  0  0
  7 18  1  0  0  0  0
  7 28  1  0  0  0  0
  8  9  2  0  0  0  0
 10 12  1  0  0  0  0
 10 13  1  0  0  0  0
 10 20  1  0  0  0  0
 11 12  1  0  0  0  0
 11 21  1  0  0  0  0
 12 22  1  0  0  0  0
 12 23  1  0  0  0  0
 13 14  1  0  0  0  0
 13 24  1  0  0  0  0
 14 25  1  0  0  0  0
 14 26  1  0  0  0  0
 15 17  2  0  0  0  0
 15 27  1  0  0  0  0
 17 18  1  0  0  0  0
 17 19  1  0  0  0  0
 19 30  1  0  0  0  0
 19 31  1  0  0  0  0
 19 32  1  0  0  0  0
M  CHG  2   8   1   9  -1
M  END

> <PUBCHEM_BONDANNOTATIONS>
13  14  6
15  17  8
17  18  8
11  5  6
5  15  8
5  16  8
10  6  5
7  16  8
7  18  8

> <StdInChI>
InChI=1S/C10H13N5O4/c1-5-3-15(10(18)12-9(5)17)8-2-6(13-14-11)7(4-16)19-8/h3,6-8,16H,2,4H2,1H3,(H,12,17,18)/t6-,7+,8+/m0/s1

> <StdInChIKey>
HBOMLICNUCNMMY-XLPZGREQSA-N

> <AuxInfo>
1/1/N:19,12,15,14,17,10,13,11,18,16,9,7,6,8,5,2,4,3,1/it:im/CRV:14.5/rA:32cOOOONNNN+N-CCCCCCCCCCHHHHHHHHHHHHH/rB:;;;;;;w6;d8;s6;s1s5;s10s11;s1s10;s2s13;s5;d3s5s7;d15;d4s7s17;s17;s10;s11;s12;s12;s13;s14;s14;s15;s7;s2;s19;s19;s19;/rC:-.531,-.8819,.8815;-.2298,-2.6223,3.1439;-3.1362,1.296,-.2256;-1.0013,4.9837,-.1074;-.8687,1.081,-.2952;.1086,-3.507,-1.3511;-2.0021,3.0894,-.2431;.8157,-4.3055,-1.8172;1.5205,-5.1074,-2.2755;.4961,-2.3732,-.6374;-.8569,-.3406,-.4013;.1314,-1.0539,-1.3621;-.25,-2.2748,.7192;.5361,-2.7714,1.9532;.2745,1.7724,-.1791;-2.0129,1.7807,-.2668;.3314,3.126,-.1417;-.8871,3.7675,-.1683;1.5896,3.8603,-.0792;1.5791,-2.379,-.4558;-1.846,-.7333,-.6769;-.3156,-1.2033,-2.349;1.0458,-.4832,-1.536;-1.206,-2.8132,.6869;.7949,-3.8252,1.8367;1.4572,-2.1963,2.0703;1.1384,1.2854,-.1159;-2.8149,3.5528,-.2732;.3598,-2.9294,3.8645;1.6534,4.5596,-.9156;1.6512,4.4235,.8533;2.4748,3.2226,-.1359;

> <Formula>
C10 H13 N5 O4

> <Mw>
267.2413

> <SMILES>
O1[C@]([H])(C([H])([H])O[H])[C@]([H])(C([H])([H])[C@]1([H])N1C(N([H])C(C(C([H])([H])[H])=C1[H])=O)=O)N=[N+]=[N-]

> <CSID>
32555

$$$$
